tests/data/power_flow/pandapower/components/pp-asym-sym_gen/pgm_asym_output.json
{
  "line": [
    {
      "id": 3,
      "energized": 1,
      "loading": 0.002088200989910677,
      "p_from": [
        -3332.975654643634,
        -3332.9756546354565,
        -3332.97565460529
      ],
      "q_from": [
        -12212.399939765346,
        -12212.399939776817,
        -12212.399939815594
      ],
      "i_from": [
        2.088200989904346,
        2.0882009899058156,
        2.088200989910677
      ],
      "s_from": [
        12659.04573825483,
        12659.045738263743,
        12659.045738293209
      ],
      "p_to": [
        3333.333333303131,
        3333.3333333187215,
        3333.3333332682046
      ],
      "q_to": [
        666.6666666708577,
        666.6666666990408,
        666.6666667206966
      ],
      "i_to": [
        0.5607143573759253,
        0.5607143573793586,
        0.5607143573718885
      ],
      "s_to": [
        3399.3463423663966,
        3399.346342387211,
        3399.3463423419225
      ]
    }
  ],
  "node": [
    {
      "id": 1,
      "energized": 1,
      "u_pu": [
        1.0000000000000004,
        1.0000000000000007,
        1.0
      ],
      "u": [
        6062.1778264910745,
        6062.177826491075,
        6062.177826491072
      ],
      "u_angle": [
        5.612160152959921e-17,
        -2.0943951023931953,
        2.094395102393196
      ]
    },
    {
      "id": 2,
      "energized": 1,
      "u_pu": [
        1.0000577197471558,
        1.000057719747156,
        1.0000577197471556
      ],
      "u": [
        6062.527733862431,
        6062.527733862432,
        6062.527733862429
      ],
      "u_angle": [
        -2.5667517902391695e-05,
        -2.094420769911098,
        2.094369434875293
      ]
    }
  ],
  "source": [
    {
      "id": 4,
      "energized": 1,
      "p": [
        -3334.3869551091716,
        -9955.637930224253,
        -15014.89015503079
      ],
      "q": [
        -14543.365716739036,
        -20189.57258072015,
        -2715.990553586682
      ],
      "i": [
        2.4612790366496338,
        3.7133096431414447,
        2.5170089746288644
      ],
      "s": [
        14920.711200784717,
        22510.743381547545,
        15258.555995074128
      ],
      "pf": [
        -0.22347372791008835,
        -0.44226162421562076,
        -0.9840308715895527
      ]
    }
  ],
  "sym_gen": [
    {
      "id": 6,
      "energized": 1,
      "p": [
        3333.333333333333,
        3333.333333333333,
        3333.333333333333
      ],
      "q": [
        666.6666666666666,
        666.6666666666666,
        666.6666666666666
      ],
      "i": [
        0.5607143573806747,
        0.5607143573806747,
        0.5607143573806748
      ],
      "s": [
        3399.34634239519,
        3399.34634239519,
        3399.34634239519
      ],
      "pf": [
        0.9805806756909201,
        0.9805806756909201,
        0.9805806756909201
      ]
    },
    {
      "id": 7,
      "energized": 1,
      "p": [
        0.0,
        0.0,
        0.0
      ],
      "q": [
        0.0,
        0.0,
        0.0
      ],
      "i": [
        0.0,
        0.0,
        0.0
      ],
      "s": [
        0.0,
        0.0,
        0.0
      ],
      "pf": [
        0.0,
        0.0,
        0.0
      ]
    }
  ]
}